<?xml version="1.0" encoding="UTF-8"?>

<!-- generated on Sun Jul  3 21:42:42 2016 by SUMO netgenerate Version 0.22.0
<?xml version="1.0" encoding="UTF-8"?>

<configuration xmlns:xsi="http://www.w3.org/2001/XMLSchema-instance" xsi:noNamespaceSchemaLocation="http://sumo.dlr.de/xsd/netgenerateConfiguration.xsd">

    <grid_network>
        <grid value="true"/>
        <grid.x-number value="7"/>
        <grid.y-number value="7"/>
        <grid.x-length value="160.4"/>
        <grid.y-length value="160.4"/>
    </grid_network>

    <output>
        <output-file value="./netfile.net.xml"/>
    </output>

    <processing>
        <no-turnarounds value="true"/>
        <offset.disable-normalization value="true"/>
        <offset.x value="20.05"/>
        <offset.y value="20.05"/>
    </processing>

    <building_defaults>
        <default.lanenumber value="1"/>
        <default.speed value="13.8889"/>
        <default.sidewalk-width value="10.1"/>
    </building_defaults>

</configuration>
-->

<net version="0.13" xmlns:xsi="http://www.w3.org/2001/XMLSchema-instance" xsi:noNamespaceSchemaLocation="http://sumo.dlr.de/xsd/net_file.xsd">

    <location netOffset="20.05,20.05" convBoundary="20.05,20.05,982.45,982.45" origBoundary="0.00,0.00,962.40,962.40" projParameter="!"/>

    <edge id=":0/0_0" function="internal">
        <lane id=":0/0_0_0" index="0" speed="13.89" length="7.90" shape="18.40,23.30 18.71,21.16 19.62,19.62 21.16,18.71 23.30,18.40"/>
    </edge>
    <edge id=":0/0_1" function="internal">
        <lane id=":0/0_1_0" index="0" speed="13.89" length="2.58" shape="23.30,21.70 22.60,21.80 22.10,22.10 21.80,22.60 21.70,23.30"/>
    </edge>
    <edge id=":0/1_0" function="internal">
        <lane id=":0/1_0_0" index="0" speed="13.89" length="9.50" shape="18.40,185.20 18.40,175.70"/>
    </edge>
    <edge id=":0/1_1" function="internal">
        <lane id=":0/1_1_0" index="0" speed="13.89" length="7.14" shape="18.40,185.20 18.80,182.40 20.00,180.40 21.70,179.38"/>
    </edge>
    <edge id=":0/1_6" function="internal">
        <lane id=":0/1_6_0" index="0" speed="13.89" length="3.18" shape="21.70,179.38 22.00,179.20 24.80,178.80"/>
    </edge>
    <edge id=":0/1_2" function="internal">
        <lane id=":0/1_2_0" index="0" speed="13.89" length="5.00" shape="24.80,182.10 23.44,182.29 22.47,182.88 21.89,183.84 21.70,185.20"/>
    </edge>
    <edge id=":0/1_3" function="internal">
        <lane id=":0/1_3_0" index="0" speed="13.89" length="10.32" shape="24.80,182.10 22.00,181.70 20.00,180.50 18.80,178.50 18.40,175.70"/>
    </edge>
    <edge id=":0/1_4" function="internal">
        <lane id=":0/1_4_0" index="0" speed="13.89" length="5.00" shape="21.70,175.70 21.89,177.06 22.47,178.03 23.44,178.61 24.80,178.80"/>
    </edge>
    <edge id=":0/1_5" function="internal">
        <lane id=":0/1_5_0" index="0" speed="13.89" length="9.50" shape="21.70,175.70 21.70,185.20"/>
    </edge>
    <edge id=":0/2_0" function="internal">
        <lane id=":0/2_0_0" index="0" speed="13.89" length="9.50" shape="18.40,345.60 18.40,336.10"/>
    </edge>
    <edge id=":0/2_1" function="internal">
        <lane id=":0/2_1_0" index="0" speed="13.89" length="7.14" shape="18.40,345.60 18.80,342.80 20.00,340.80 21.70,339.78"/>
    </edge>
    <edge id=":0/2_6" function="internal">
        <lane id=":0/2_6_0" index="0" speed="13.89" length="3.18" shape="21.70,339.78 22.00,339.60 24.80,339.20"/>
    </edge>
    <edge id=":0/2_2" function="internal">
        <lane id=":0/2_2_0" index="0" speed="13.89" length="5.00" shape="24.80,342.50 23.44,342.69 22.47,343.27 21.89,344.24 21.70,345.60"/>
    </edge>
    <edge id=":0/2_3" function="internal">
        <lane id=":0/2_3_0" index="0" speed="13.89" length="10.32" shape="24.80,342.50 22.00,342.10 20.00,340.90 18.80,338.90 18.40,336.10"/>
    </edge>
    <edge id=":0/2_4" function="internal">
        <lane id=":0/2_4_0" index="0" speed="13.89" length="5.00" shape="21.70,336.10 21.89,337.46 22.48,338.43 23.44,339.01 24.80,339.20"/>
    </edge>
    <edge id=":0/2_5" function="internal">
        <lane id=":0/2_5_0" index="0" speed="13.89" length="9.50" shape="21.70,336.10 21.70,345.60"/>
    </edge>
    <edge id=":0/3_0" function="internal">
        <lane id=":0/3_0_0" index="0" speed="13.89" length="9.50" shape="18.40,506.00 18.40,496.50"/>
    </edge>
    <edge id=":0/3_1" function="internal">
        <lane id=":0/3_1_0" index="0" speed="13.89" length="7.14" shape="18.40,506.00 18.80,503.20 20.00,501.20 21.70,500.18"/>
    </edge>
    <edge id=":0/3_6" function="internal">
        <lane id=":0/3_6_0" index="0" speed="13.89" length="3.18" shape="21.70,500.18 22.00,500.00 24.80,499.60"/>
    </edge>
    <edge id=":0/3_2" function="internal">
        <lane id=":0/3_2_0" index="0" speed="13.89" length="5.00" shape="24.80,502.90 23.44,503.09 22.48,503.68 21.89,504.64 21.70,506.00"/>
    </edge>
    <edge id=":0/3_3" function="internal">
        <lane id=":0/3_3_0" index="0" speed="13.89" length="10.32" shape="24.80,502.90 22.00,502.50 20.00,501.30 18.80,499.30 18.40,496.50"/>
    </edge>
    <edge id=":0/3_4" function="internal">
        <lane id=":0/3_4_0" index="0" speed="13.89" length="5.00" shape="21.70,496.50 21.89,497.86 22.48,498.83 23.44,499.41 24.80,499.60"/>
    </edge>
    <edge id=":0/3_5" function="internal">
        <lane id=":0/3_5_0" index="0" speed="13.89" length="9.50" shape="21.70,496.50 21.70,506.00"/>
    </edge>
    <edge id=":0/4_0" function="internal">
        <lane id=":0/4_0_0" index="0" speed="13.89" length="9.50" shape="18.40,666.40 18.40,656.90"/>
    </edge>
    <edge id=":0/4_1" function="internal">
        <lane id=":0/4_1_0" index="0" speed="13.89" length="7.14" shape="18.40,666.40 18.80,663.60 20.00,661.60 21.70,660.58"/>
    </edge>
    <edge id=":0/4_6" function="internal">
        <lane id=":0/4_6_0" index="0" speed="13.89" length="3.18" shape="21.70,660.58 22.00,660.40 24.80,660.00"/>
    </edge>
    <edge id=":0/4_2" function="internal">
        <lane id=":0/4_2_0" index="0" speed="13.89" length="5.00" shape="24.80,663.30 23.44,663.49 22.47,664.07 21.89,665.04 21.70,666.40"/>
    </edge>
    <edge id=":0/4_3" function="internal">
        <lane id=":0/4_3_0" index="0" speed="13.89" length="10.32" shape="24.80,663.30 22.00,662.90 20.00,661.70 18.80,659.70 18.40,656.90"/>
    </edge>
    <edge id=":0/4_4" function="internal">
        <lane id=":0/4_4_0" index="0" speed="13.89" length="5.00" shape="21.70,656.90 21.89,658.26 22.48,659.23 23.44,659.81 24.80,660.00"/>
    </edge>
    <edge id=":0/4_5" function="internal">
        <lane id=":0/4_5_0" index="0" speed="13.89" length="9.50" shape="21.70,656.90 21.70,666.40"/>
    </edge>
    <edge id=":0/5_0" function="internal">
        <lane id=":0/5_0_0" index="0" speed="13.89" length="9.50" shape="18.40,826.80 18.40,817.30"/>
    </edge>
    <edge id=":0/5_1" function="internal">
        <lane id=":0/5_1_0" index="0" speed="13.89" length="7.14" shape="18.40,826.80 18.80,824.00 20.00,822.00 21.70,820.98"/>
    </edge>
    <edge id=":0/5_6" function="internal">
        <lane id=":0/5_6_0" index="0" speed="13.89" length="3.18" shape="21.70,820.98 22.00,820.80 24.80,820.40"/>
    </edge>
    <edge id=":0/5_2" function="internal">
        <lane id=":0/5_2_0" index="0" speed="13.89" length="5.00" shape="24.80,823.70 23.44,823.89 22.47,824.47 21.89,825.44 21.70,826.80"/>
    </edge>
    <edge id=":0/5_3" function="internal">
        <lane id=":0/5_3_0" index="0" speed="13.89" length="10.32" shape="24.80,823.70 22.00,823.30 20.00,822.10 18.80,820.10 18.40,817.30"/>
    </edge>
    <edge id=":0/5_4" function="internal">
        <lane id=":0/5_4_0" index="0" speed="13.89" length="5.00" shape="21.70,817.30 21.89,818.66 22.48,819.62 23.44,820.21 24.80,820.40"/>
    </edge>
    <edge id=":0/5_5" function="internal">
        <lane id=":0/5_5_0" index="0" speed="13.89" length="9.50" shape="21.70,817.30 21.70,826.80"/>
    </edge>
    <edge id=":0/6_0" function="internal">
        <lane id=":0/6_0_0" index="0" speed="13.89" length="7.90" shape="23.30,984.10 21.16,983.79 19.62,982.88 18.71,981.34 18.40,979.20"/>
    </edge>
    <edge id=":0/6_1" function="internal">
        <lane id=":0/6_1_0" index="0" speed="13.89" length="2.58" shape="21.70,979.20 21.80,979.90 22.10,980.40 22.60,980.70 23.30,980.80"/>
    </edge>
    <edge id=":1/0_0" function="internal">
        <lane id=":1/0_0_0" index="0" speed="13.89" length="5.00" shape="178.80,24.80 178.61,23.44 178.03,22.47 177.06,21.89 175.70,21.70"/>
    </edge>
    <edge id=":1/0_1" function="internal">
        <lane id=":1/0_1_0" index="0" speed="13.89" length="10.32" shape="178.80,24.80 179.20,22.00 180.40,20.00 182.40,18.80 185.20,18.40"/>
    </edge>
    <edge id=":1/0_2" function="internal">
        <lane id=":1/0_2_0" index="0" speed="13.89" length="5.00" shape="185.20,21.70 183.84,21.89 182.88,22.47 182.29,23.44 182.10,24.80"/>
    </edge>
    <edge id=":1/0_3" function="internal">
        <lane id=":1/0_3_0" index="0" speed="13.89" length="9.50" shape="185.20,21.70 175.70,21.70"/>
    </edge>
    <edge id=":1/0_4" function="internal">
        <lane id=":1/0_4_0" index="0" speed="13.89" length="9.50" shape="175.70,18.40 185.20,18.40"/>
    </edge>
    <edge id=":1/0_5" function="internal">
        <lane id=":1/0_5_0" index="0" speed="13.89" length="7.14" shape="175.70,18.40 178.50,18.80 180.50,20.00 181.52,21.70"/>
    </edge>
    <edge id=":1/0_6" function="internal">
        <lane id=":1/0_6_0" index="0" speed="13.89" length="3.18" shape="181.52,21.70 181.70,22.00 182.10,24.80"/>
    </edge>
    <edge id=":1/1_0" function="internal">
        <lane id=":1/1_0_0" index="0" speed="13.89" length="5.00" shape="178.80,185.20 178.61,183.84 178.03,182.88 177.06,182.29 175.70,182.10"/>
    </edge>
    <edge id=":1/1_1" function="internal">
        <lane id=":1/1_1_0" index="0" speed="13.89" length="9.50" shape="178.80,185.20 178.80,175.70"/>
    </edge>
    <edge id=":1/1_2" function="internal">
        <lane id=":1/1_2_0" index="0" speed="13.89" length="7.14" shape="178.80,185.20 179.20,182.40 180.40,180.40 182.10,179.38"/>
    </edge>
    <edge id=":1/1_12" function="internal">
        <lane id=":1/1_12_0" index="0" speed="13.89" length="3.18" shape="182.10,179.38 182.40,179.20 185.20,178.80"/>
    </edge>
    <edge id=":1/1_3" function="internal">
        <lane id=":1/1_3_0" index="0" speed="13.89" length="5.00" shape="185.20,182.10 183.84,182.29 182.88,182.88 182.29,183.84 182.10,185.20"/>
    </edge>
    <edge id=":1/1_4" function="internal">
        <lane id=":1/1_4_0" index="0" speed="13.89" length="9.50" shape="185.20,182.10 175.70,182.10"/>
    </edge>
    <edge id=":1/1_5" function="internal">
        <lane id=":1/1_5_0" index="0" speed="13.89" length="10.32" shape="185.20,182.10 182.40,181.70 180.40,180.50 179.20,178.50 178.80,175.70"/>
    </edge>
    <edge id=":1/1_6" function="internal">
        <lane id=":1/1_6_0" index="0" speed="13.89" length="5.00" shape="182.10,175.70 182.29,177.06 182.88,178.03 183.84,178.61 185.20,178.80"/>
    </edge>
    <edge id=":1/1_7" function="internal">
        <lane id=":1/1_7_0" index="0" speed="13.89" length="9.50" shape="182.10,175.70 182.10,185.20"/>
    </edge>
    <edge id=":1/1_8" function="internal">
        <lane id=":1/1_8_0" index="0" speed="13.89" length="7.14" shape="182.10,175.70 181.70,178.50 180.50,180.50 178.80,181.52"/>
    </edge>
    <edge id=":1/1_13" function="internal">
        <lane id=":1/1_13_0" index="0" speed="13.89" length="3.18" shape="178.80,181.52 178.50,181.70 175.70,182.10"/>
    </edge>
    <edge id=":1/1_9" function="internal">
        <lane id=":1/1_9_0" index="0" speed="13.89" length="5.00" shape="175.70,178.80 177.06,178.61 178.03,178.03 178.61,177.06 178.80,175.70"/>
    </edge>
    <edge id=":1/1_10" function="internal">
        <lane id=":1/1_10_0" index="0" speed="13.89" length="9.50" shape="175.70,178.80 185.20,178.80"/>
    </edge>
    <edge id=":1/1_11" function="internal">
        <lane id=":1/1_11_0" index="0" speed="13.89" length="10.32" shape="175.70,178.80 178.50,179.20 180.50,180.40 181.70,182.40 182.10,185.20"/>
    </edge>
    <edge id=":1/2_0" function="internal">
        <lane id=":1/2_0_0" index="0" speed="13.89" length="5.00" shape="178.80,345.60 178.61,344.24 178.03,343.27 177.06,342.69 175.70,342.50"/>
    </edge>
    <edge id=":1/2_1" function="internal">
        <lane id=":1/2_1_0" index="0" speed="13.89" length="9.50" shape="178.80,345.60 178.80,336.10"/>
    </edge>
    <edge id=":1/2_2" function="internal">
        <lane id=":1/2_2_0" index="0" speed="13.89" length="7.14" shape="178.80,345.60 179.20,342.80 180.40,340.80 182.10,339.78"/>
    </edge>
    <edge id=":1/2_12" function="internal">
        <lane id=":1/2_12_0" index="0" speed="13.89" length="3.18" shape="182.10,339.78 182.40,339.60 185.20,339.20"/>
    </edge>
    <edge id=":1/2_3" function="internal">
        <lane id=":1/2_3_0" index="0" speed="13.89" length="5.00" shape="185.20,342.50 183.84,342.69 182.88,343.27 182.29,344.24 182.10,345.60"/>
    </edge>
    <edge id=":1/2_4" function="internal">
        <lane id=":1/2_4_0" index="0" speed="13.89" length="9.50" shape="185.20,342.50 175.70,342.50"/>
    </edge>
    <edge id=":1/2_5" function="internal">
        <lane id=":1/2_5_0" index="0" speed="13.89" length="10.32" shape="185.20,342.50 182.40,342.10 180.40,340.90 179.20,338.90 178.80,336.10"/>
    </edge>
    <edge id=":1/2_6" function="internal">
        <lane id=":1/2_6_0" index="0" speed="13.89" length="5.00" shape="182.10,336.10 182.29,337.46 182.88,338.43 183.84,339.01 185.20,339.20"/>
    </edge>
    <edge id=":1/2_7" function="internal">
        <lane id=":1/2_7_0" index="0" speed="13.89" length="9.50" shape="182.10,336.10 182.10,345.60"/>
    </edge>
    <edge id=":1/2_8" function="internal">
        <lane id=":1/2_8_0" index="0" speed="13.89" length="7.14" shape="182.10,336.10 181.70,338.90 180.50,340.90 178.80,341.92"/>
    </edge>
    <edge id=":1/2_13" function="internal">
        <lane id=":1/2_13_0" index="0" speed="13.89" length="3.18" shape="178.80,341.92 178.50,342.10 175.70,342.50"/>
    </edge>
    <edge id=":1/2_9" function="internal">
        <lane id=":1/2_9_0" index="0" speed="13.89" length="5.00" shape="175.70,339.20 177.06,339.01 178.02,338.43 178.61,337.46 178.80,336.10"/>
    </edge>
    <edge id=":1/2_10" function="internal">
        <lane id=":1/2_10_0" index="0" speed="13.89" length="9.50" shape="175.70,339.20 185.20,339.20"/>
    </edge>
    <edge id=":1/2_11" function="internal">
        <lane id=":1/2_11_0" index="0" speed="13.89" length="10.32" shape="175.70,339.20 178.50,339.60 180.50,340.80 181.70,342.80 182.10,345.60"/>
    </edge>
    <edge id=":1/3_0" function="internal">
        <lane id=":1/3_0_0" index="0" speed="13.89" length="5.00" shape="178.80,506.00 178.61,504.64 178.03,503.68 177.06,503.09 175.70,502.90"/>
    </edge>
    <edge id=":1/3_1" function="internal">
        <lane id=":1/3_1_0" index="0" speed="13.89" length="9.50" shape="178.80,506.00 178.80,496.50"/>
    </edge>
    <edge id=":1/3_2" function="internal">
        <lane id=":1/3_2_0" index="0" speed="13.89" length="7.14" shape="178.80,506.00 179.20,503.20 180.40,501.20 182.10,500.18"/>
    </edge>
    <edge id=":1/3_12" function="internal">
        <lane id=":1/3_12_0" index="0" speed="13.89" length="3.18" shape="182.10,500.18 182.40,500.00 185.20,499.60"/>
    </edge>
    <edge id=":1/3_3" function="internal">
        <lane id=":1/3_3_0" index="0" speed="13.89" length="5.00" shape="185.20,502.90 183.84,503.09 182.88,503.68 182.29,504.64 182.10,506.00"/>
    </edge>
    <edge id=":1/3_4" function="internal">
        <lane id=":1/3_4_0" index="0" speed="13.89" length="9.50" shape="185.20,502.90 175.70,502.90"/>
    </edge>
    <edge id=":1/3_5" function="internal">
        <lane id=":1/3_5_0" index="0" speed="13.89" length="10.32" shape="185.20,502.90 182.40,502.50 180.40,501.30 179.20,499.30 178.80,496.50"/>
    </edge>
    <edge id=":1/3_6" function="internal">
        <lane id=":1/3_6_0" index="0" speed="13.89" length="5.00" shape="182.10,496.50 182.29,497.86 182.88,498.83 183.84,499.41 185.20,499.60"/>
    </edge>
    <edge id=":1/3_7" function="internal">
        <lane id=":1/3_7_0" index="0" speed="13.89" length="9.50" shape="182.10,496.50 182.10,506.00"/>
    </edge>
    <edge id=":1/3_8" function="internal">
        <lane id=":1/3_8_0" index="0" speed="13.89" length="7.14" shape="182.10,496.50 181.70,499.30 180.50,501.30 178.80,502.32"/>
    </edge>
    <edge id=":1/3_13" function="internal">
        <lane id=":1/3_13_0" index="0" speed="13.89" length="3.18" shape="178.80,502.32 178.50,502.50 175.70,502.90"/>
    </edge>
    <edge id=":1/3_9" function="internal">
        <lane id=":1/3_9_0" index="0" speed="13.89" length="5.00" shape="175.70,499.60 177.06,499.41 178.03,498.83 178.61,497.86 178.80,496.50"/>
    </edge>
    <edge id=":1/3_10" function="internal">
        <lane id=":1/3_10_0" index="0" speed="13.89" length="9.50" shape="175.70,499.60 185.20,499.60"/>
    </edge>
    <edge id=":1/3_11" function="internal">
        <lane id=":1/3_11_0" index="0" speed="13.89" length="10.32" shape="175.70,499.60 178.50,500.00 180.50,501.20 181.70,503.20 182.10,506.00"/>
    </edge>
    <edge id=":1/4_0" function="internal">
        <lane id=":1/4_0_0" index="0" speed="13.89" length="5.00" shape="178.80,666.40 178.61,665.04 178.03,664.08 177.06,663.49 175.70,663.30"/>
    </edge>
    <edge id=":1/4_1" function="internal">
        <lane id=":1/4_1_0" index="0" speed="13.89" length="9.50" shape="178.80,666.40 178.80,656.90"/>
    </edge>
    <edge id=":1/4_2" function="internal">
        <lane id=":1/4_2_0" index="0" speed="13.89" length="7.14" shape="178.80,666.40 179.20,663.60 180.40,661.60 182.10,660.58"/>
    </edge>
    <edge id=":1/4_12" function="internal">
        <lane id=":1/4_12_0" index="0" speed="13.89" length="3.18" shape="182.10,660.58 182.40,660.40 185.20,660.00"/>
    </edge>
    <edge id=":1/4_3" function="internal">
        <lane id=":1/4_3_0" index="0" speed="13.89" length="5.00" shape="185.20,663.30 183.84,663.49 182.88,664.07 182.29,665.04 182.10,666.40"/>
    </edge>
    <edge id=":1/4_4" function="internal">
        <lane id=":1/4_4_0" index="0" speed="13.89" length="9.50" shape="185.20,663.30 175.70,663.30"/>
    </edge>
    <edge id=":1/4_5" function="internal">
        <lane id=":1/4_5_0" index="0" speed="13.89" length="10.32" shape="185.20,663.30 182.40,662.90 180.40,661.70 179.20,659.70 178.80,656.90"/>
    </edge>
    <edge id=":1/4_6" function="internal">
        <lane id=":1/4_6_0" index="0" speed="13.89" length="5.00" shape="182.10,656.90 182.29,658.26 182.88,659.23 183.84,659.81 185.20,660.00"/>
    </edge>
    <edge id=":1/4_7" function="internal">
        <lane id=":1/4_7_0" index="0" speed="13.89" length="9.50" shape="182.10,656.90 182.10,666.40"/>
    </edge>
    <edge id=":1/4_8" function="internal">
        <lane id=":1/4_8_0" index="0" speed="13.89" length="7.14" shape="182.10,656.90 181.70,659.70 180.50,661.70 178.80,662.72"/>
    </edge>
    <edge id=":1/4_13" function="internal">
        <lane id=":1/4_13_0" index="0" speed="13.89" length="3.18" shape="178.80,662.72 178.50,662.90 175.70,663.30"/>
    </edge>
    <edge id=":1/4_9" function="internal">
        <lane id=":1/4_9_0" index="0" speed="13.89" length="5.00" shape="175.70,660.00 177.06,659.81 178.02,659.23 178.61,658.26 178.80,656.90"/>
    </edge>
    <edge id=":1/4_10" function="internal">
        <lane id=":1/4_10_0" index="0" speed="13.89" length="9.50" shape="175.70,660.00 185.20,660.00"/>
    </edge>
    <edge id=":1/4_11" function="internal">
        <lane id=":1/4_11_0" index="0" speed="13.89" length="10.32" shape="175.70,660.00 178.50,660.40 180.50,661.60 181.70,663.60 182.10,666.40"/>
    </edge>
    <edge id=":1/5_0" function="internal">
        <lane id=":1/5_0_0" index="0" speed="13.89" length="5.00" shape="178.80,826.80 178.61,825.44 178.03,824.47 177.06,823.89 175.70,823.70"/>
    </edge>
    <edge id=":1/5_1" function="internal">
        <lane id=":1/5_1_0" index="0" speed="13.89" length="9.50" shape="178.80,826.80 178.80,817.30"/>
    </edge>
    <edge id=":1/5_2" function="internal">
        <lane id=":1/5_2_0" index="0" speed="13.89" length="7.14" shape="178.80,826.80 179.20,824.00 180.40,822.00 182.10,820.98"/>
    </edge>
    <edge id=":1/5_12" function="internal">
        <lane id=":1/5_12_0" index="0" speed="13.89" length="3.18" shape="182.10,820.98 182.40,820.80 185.20,820.40"/>
    </edge>
    <edge id=":1/5_3" function="internal">
        <lane id=":1/5_3_0" index="0" speed="13.89" length="5.00" shape="185.20,823.70 183.84,823.89 182.88,824.47 182.29,825.44 182.10,826.80"/>
    </edge>
    <edge id=":1/5_4" function="internal">
        <lane id=":1/5_4_0" index="0" speed="13.89" length="9.50" shape="185.20,823.70 175.70,823.70"/>
    </edge>
    <edge id=":1/5_5" function="internal">
        <lane id=":1/5_5_0" index="0" speed="13.89" length="10.32" shape="185.20,823.70 182.40,823.30 180.40,822.10 179.20,820.10 178.80,817.30"/>
    </edge>
    <edge id=":1/5_6" function="internal">
        <lane id=":1/5_6_0" index="0" speed="13.89" length="5.00" shape="182.10,817.30 182.29,818.66 182.88,819.62 183.84,820.21 185.20,820.40"/>
    </edge>
    <edge id=":1/5_7" function="internal">
        <lane id=":1/5_7_0" index="0" speed="13.89" length="9.50" shape="182.10,817.30 182.10,826.80"/>
    </edge>
    <edge id=":1/5_8" function="internal">
        <lane id=":1/5_8_0" index="0" speed="13.89" length="7.14" shape="182.10,817.30 181.70,820.10 180.50,822.10 178.80,823.12"/>
    </edge>
    <edge id=":1/5_13" function="internal">
        <lane id=":1/5_13_0" index="0" speed="13.89" length="3.18" shape="178.80,823.12 178.50,823.30 175.70,823.70"/>
    </edge>
    <edge id=":1/5_9" function="internal">
        <lane id=":1/5_9_0" index="0" speed="13.89" length="5.00" shape="175.70,820.40 177.06,820.21 178.02,819.62 178.61,818.66 178.80,817.30"/>
    </edge>
    <edge id=":1/5_10" function="internal">
        <lane id=":1/5_10_0" index="0" speed="13.89" length="9.50" shape="175.70,820.40 185.20,820.40"/>
    </edge>
    <edge id=":1/5_11" function="internal">
        <lane id=":1/5_11_0" index="0" speed="13.89" length="10.32" shape="175.70,820.40 178.50,820.80 180.50,822.00 181.70,824.00 182.10,826.80"/>
    </edge>
    <edge id=":1/6_0" function="internal">
        <lane id=":1/6_0_0" index="0" speed="13.89" length="9.50" shape="185.20,984.10 175.70,984.10"/>
    </edge>
    <edge id=":1/6_1" function="internal">
        <lane id=":1/6_1_0" index="0" speed="13.89" length="7.14" shape="185.20,984.10 182.40,983.70 180.40,982.50 179.38,980.80"/>
    </edge>
    <edge id=":1/6_6" function="internal">
        <lane id=":1/6_6_0" index="0" speed="13.89" length="3.18" shape="179.38,980.80 179.20,980.50 178.80,977.70"/>
    </edge>
    <edge id=":1/6_2" function="internal">
        <lane id=":1/6_2_0" index="0" speed="13.89" length="5.00" shape="182.10,977.70 182.29,979.06 182.88,980.03 183.84,980.61 185.20,980.80"/>
    </edge>
    <edge id=":1/6_3" function="internal">
        <lane id=":1/6_3_0" index="0" speed="13.89" length="10.32" shape="182.10,977.70 181.70,980.50 180.50,982.50 178.50,983.70 175.70,984.10"/>
    </edge>
    <edge id=":1/6_4" function="internal">
        <lane id=":1/6_4_0" index="0" speed="13.89" length="5.00" shape="175.70,980.80 177.06,980.61 178.02,980.03 178.61,979.06 178.80,977.70"/>
    </edge>
    <edge id=":1/6_5" function="internal">
        <lane id=":1/6_5_0" index="0" speed="13.89" length="9.50" shape="175.70,980.80 185.20,980.80"/>
    </edge>
    <edge id=":2/0_0" function="internal">
        <lane id=":2/0_0_0" index="0" speed="13.89" length="5.00" shape="339.20,24.80 339.01,23.44 338.43,22.47 337.46,21.89 336.10,21.70"/>
    </edge>
    <edge id=":2/0_1" function="internal">
        <lane id=":2/0_1_0" index="0" speed="13.89" length="10.32" shape="339.20,24.80 339.60,22.00 340.80,20.00 342.80,18.80 345.60,18.40"/>
    </edge>
    <edge id=":2/0_2" function="internal">
        <lane id=":2/0_2_0" index="0" speed="13.89" length="5.00" shape="345.60,21.70 344.24,21.89 343.27,22.47 342.69,23.44 342.50,24.80"/>
    </edge>
    <edge id=":2/0_3" function="internal">
        <lane id=":2/0_3_0" index="0" speed="13.89" length="9.50" shape="345.60,21.70 336.10,21.70"/>
    </edge>
    <edge id=":2/0_4" function="internal">
        <lane id=":2/0_4_0" index="0" speed="13.89" length="9.50" shape="336.10,18.40 345.60,18.40"/>
    </edge>
    <edge id=":2/0_5" function="internal">
        <lane id=":2/0_5_0" index="0" speed="13.89" length="7.14" shape="336.10,18.40 338.90,18.80 340.90,20.00 341.92,21.70"/>
    </edge>
    <edge id=":2/0_6" function="internal">
        <lane id=":2/0_6_0" index="0" speed="13.89" length="3.18" shape="341.92,21.70 342.10,22.00 342.50,24.80"/>
    </edge>
    <edge id=":2/1_0" function="internal">
        <lane id=":2/1_0_0" index="0" speed="13.89" length="5.00" shape="339.20,185.20 339.01,183.84 338.43,182.88 337.46,182.29 336.10,182.10"/>
    </edge>
    <edge id=":2/1_1" function="internal">
        <lane id=":2/1_1_0" index="0" speed="13.89" length="9.50" shape="339.20,185.20 339.20,175.70"/>
    </edge>
    <edge id=":2/1_2" function="internal">
        <lane id=":2/1_2_0" index="0" speed="13.89" length="7.14" shape="339.20,185.20 339.60,182.40 340.80,180.40 342.50,179.38"/>
    </edge>
    <edge id=":2/1_12" function="internal">
        <lane id=":2/1_12_0" index="0" speed="13.89" length="3.18" shape="342.50,179.38 342.80,179.20 345.60,178.80"/>
    </edge>
    <edge id=":2/1_3" function="internal">
        <lane id=":2/1_3_0" index="0" speed="13.89" length="5.00" shape="345.60,182.10 344.24,182.29 343.27,182.88 342.69,183.84 342.50,185.20"/>
    </edge>
    <edge id=":2/1_4" function="internal">
        <lane id=":2/1_4_0" index="0" speed="13.89" length="9.50" shape="345.60,182.10 336.10,182.10"/>
    </edge>
    <edge id=":2/1_5" function="internal">
        <lane id=":2/1_5_0" index="0" speed="13.89" length="10.32" shape="345.60,182.10 342.80,181.70 340.80,180.50 339.60,178.50 339.20,175.70"/>
    </edge>
    <edge id=":2/1_6" function="internal">
        <lane id=":2/1_6_0" index="0" speed="13.89" length="5.00" shape="342.50,175.70 342.69,177.06 343.27,178.02 344.24,178.61 345.60,178.80"/>
    </edge>
    <edge id=":2/1_7" function="internal">
        <lane id=":2/1_7_0" index="0" speed="13.89" length="9.50" shape="342.50,175.70 342.50,185.20"/>
    </edge>
    <edge id=":2/1_8" function="internal">
        <lane id=":2/1_8_0" index="0" speed="13.89" length="7.14" shape="342.50,175.70 342.10,178.50 340.90,180.50 339.20,181.52"/>
    </edge>
    <edge id=":2/1_13" function="internal">
        <lane id=":2/1_13_0" index="0" speed="13.89" length="3.18" shape="339.20,181.52 338.90,181.70 336.10,182.10"/>
    </edge>
    <edge id=":2/1_9" function="internal">
        <lane id=":2/1_9_0" index="0" speed="13.89" length="5.00" shape="336.10,178.80 337.46,178.61 338.43,178.03 339.01,177.06 339.20,175.70"/>
    </edge>
    <edge id=":2/1_10" function="internal">
        <lane id=":2/1_10_0" index="0" speed="13.89" length="9.50" shape="336.10,178.80 345.60,178.80"/>
    </edge>
    <edge id=":2/1_11" function="internal">
        <lane id=":2/1_11_0" index="0" speed="13.89" length="10.32" shape="336.10,178.80 338.90,179.20 340.90,180.40 342.10,182.40 342.50,185.20"/>
    </edge>
    <edge id=":2/2_0" function="internal">
        <lane id=":2/2_0_0" index="0" speed="13.89" length="5.00" shape="339.20,345.60 339.01,344.24 338.43,343.27 337.46,342.69 336.10,342.50"/>
    </edge>
    <edge id=":2/2_1" function="internal">
        <lane id=":2/2_1_0" index="0" speed="13.89" length="9.50" shape="339.20,345.60 339.20,336.10"/>
    </edge>
    <edge id=":2/2_2" function="internal">
        <lane id=":2/2_2_0" index="0" speed="13.89" length="7.14" shape="339.20,345.60 339.60,342.80 340.80,340.80 342.50,339.78"/>
    </edge>
    <edge id=":2/2_12" function="internal">
        <lane id=":2/2_12_0" index="0" speed="13.89" length="3.18" shape="342.50,339.78 342.80,339.60 345.60,339.20"/>
    </edge>
    <edge id=":2/2_3" function="internal">
        <lane id=":2/2_3_0" index="0" speed="13.89" length="5.00" shape="345.60,342.50 344.24,342.69 343.27,343.27 342.69,344.24 342.50,345.60"/>
    </edge>
    <edge id=":2/2_4" function="internal">
        <lane id=":2/2_4_0" index="0" speed="13.89" length="9.50" shape="345.60,342.50 336.10,342.50"/>
    </edge>
    <edge id=":2/2_5" function="internal">
        <lane id=":2/2_5_0" index="0" speed="13.89" length="10.32" shape="345.60,342.50 342.80,342.10 340.80,340.90 339.60,338.90 339.20,336.10"/>
    </edge>
    <edge id=":2/2_6" function="internal">
        <lane id=":2/2_6_0" index="0" speed="13.89" length="5.00" shape="342.50,336.10 342.69,337.46 343.27,338.43 344.24,339.01 345.60,339.20"/>
    </edge>
    <edge id=":2/2_7" function="internal">
        <lane id=":2/2_7_0" index="0" speed="13.89" length="9.50" shape="342.50,336.10 342.50,345.60"/>
    </edge>
    <edge id=":2/2_8" function="internal">
        <lane id=":2/2_8_0" index="0" speed="13.89" length="7.14" shape="342.50,336.10 342.10,338.90 340.90,340.90 339.20,341.92"/>
    </edge>
    <edge id=":2/2_13" function="internal">
        <lane id=":2/2_13_0" index="0" speed="13.89" length="3.18" shape="339.20,341.92 338.90,342.10 336.10,342.50"/>
    </edge>
    <edge id=":2/2_9" function="internal">
        <lane id=":2/2_9_0" index="0" speed="13.89" length="5.00" shape="336.10,339.20 337.46,339.01 338.43,338.43 339.01,337.46 339.20,336.10"/>
    </edge>
    <edge id=":2/2_10" function="internal">
        <lane id=":2/2_10_0" index="0" speed="13.89" length="9.50" shape="336.10,339.20 345.60,339.20"/>
    </edge>
    <edge id=":2/2_11" function="internal">