<?xml version="1.0" encoding="UTF-8"?>

<!-- generated on Sun Jul  3 21:42:42 2016 by SUMO duarouter Version 0.22.0
<?xml version="1.0" encoding="UTF-8"?>

<configuration xmlns:xsi="http://www.w3.org/2001/XMLSchema-instance" xsi:noNamespaceSchemaLocation="http://sumo.dlr.de/xsd/duarouterConfiguration.xsd">

    <input>
        <net-file value="./netfile.net.xml"/>
        <trip-files value="trips.trips.xml"/>
    </input>

    <output>
        <output-file value="./routefile.rou.xml"/>
    </output>

    <processing>
        <ignore-errors value="true"/>
    </processing>

    <time>
        <begin value="0"/>
        <end value="300.0"/>
    </time>

    <report>
        <no-step-log value="true"/>
    </report>

</configuration>
-->

<routes xmlns:xsi="http://www.w3.org/2001/XMLSchema-instance" xsi:noNamespaceSchemaLocation="http://sumo.dlr.de/xsd/routes_file.xsd">
    <vehicle id="0" depart="0.00">
        <route edges="2/1to3/1 3/1to4/1 4/1to4/2 4/2to3/2 3/2to3/1 3/1to4/1 4/1to5/1 5/1to5/0 5/0to4/0 4/0to3/0 3/0to2/0 2/0to1/0 1/0to1/1 1/1to1/2 1/2to1/3 1/3to1/4 1/4to2/4 2/4to2/3 2/3to1/3 1/3to0/3 0/3to0/2 0/2to0/1 0/1to0/0 0/0to1/0 1/0to1/1 1/1to1/2 1/2to1/3 1/3to1/4 1/4to1/5 1/5to2/5 2/5to3/5 3/5to4/5 4/5to4/6 4/6to3/6 3/6to3/5 3/5to3/4 3/4to2/4 2/4to2/5 2/5to3/5 3/5to3/4 3/4to2/4 2/4to2/5 2/5to1/5 1/5to1/4 1/4to1/3 1/3to2/3 2/3to3/3 3/3to4/3 4/3to4/4 4/4to3/4 3/4to3/3 3/3to4/3 4/3to5/3 5/3to6/3 6/3to6/4 6/4to5/4 5/4to4/4 4/4to3/4 3/4to2/4 2/4to2/5 2/5to1/5 1/5to1/4 1/4to0/4 0/4to0/3 0/3to0/2 0/2to0/1"/>
    </vehicle>
    <vehicle id="1" depart="0.00">
        <route edges="1/3to0/3 0/3to0/2 0/2to0/1 0/1to1/1 1/1to2/1 2/1to3/1 3/1to3/0 3/0to2/0 2/0to2/1 2/1to2/2 2/2to3/2 3/2to3/1 3/1to3/0 3/0to2/0 2/0to2/1 2/1to3/1 3/1to4/1 4/1to5/1 5/1to5/0 5/0to6/0 6/0to6/1 6/1to5/1 5/1to4/1 4/1to3/1 3/1to2/1 2/1to1/1 1/1to1/0 1/0to2/0 2/0to2/1 2/1to2/2 2/2to3/2 3/2to4/2 4/2to5/2 5/2to6/2 6/2to6/1 6/1to6/0 6/0to5/0 5/0to5/1 5/1to5/2 5/2to5/3 5/3to5/4 5/4to5/5 5/5to6/5 6/5to6/6 6/6to5/6 5/6to4/6 4/6to3/6 3/6to2/6 2/6to1/6 1/6to1/5 1/5to0/5 0/5to0/4 0/4to0/3 0/3to1/3 1/3to1/2 1/2to1/1 1/1to0/1 0/1to0/2 0/2to0/3 0/3to0/4 0/4to0/5 0/5to1/5 1/5to2/5 2/5to2/4 2/4to2/3 2/3to2/2 2/2to2/1 2/1to2/0 2/0to3/0 3/0to4/0 4/0to4/1 4/1to3/1 3/1to3/2 3/2to3/3 3/3to3/4 3/4to3/5 3/5to3/6 3/6to2/6 2/6to2/5 2/5to2/4 2/4to2/3 2/3to2/2 2/2to2/1 2/1to3/1 3/1to3/2 3/2to3/3 3/3to3/4 3/4to3/5 3/5to3/6 3/6to2/6 2/6to2/5 2/5to2/4 2/4to3/4 3/4to4/4 4/4to5/4 5/4to6/4 6/4to6/5 6/5to5/5 5/5to4/5 4/5to3/5 3/5to2/5 2/5to2/6 2/6to1/6 1/6to1/5 1/5to1/4 1/4to1/3 1/3to1/2 1/2to2/2 2/2to2/3 2/3to2/4 2/4to2/5 2/5to2/6 2/6to3/6 3/6to3/5 3/5to4/5 4/5to5/5 5/5to6/5 6/5to6/4 6/4to5/4 5/4to5/5 5/5to4/5 4/5to4/4 4/4to3/4 3/4to3/5 3/5to2/5 2/5to1/5 1/5to0/5 0/5to0/6 0/6to1/6 1/6to1/5 1/5to0/5 0/5to0/4 0/4to0/3 0/3to0/2 0/2to0/1 0/1to1/1 1/1to2/1 2/1to3/1 3/1to4/1 4/1to4/2 4/2to3/2 3/2to3/3 3/3to4/3 4/3to5/3 5/3to5/2 5/2to4/2 4/2to3/2 3/2to2/2 2/2to1/2 1/2to1/3 1/3to1/4 1/4to1/5 1/5to2/5 2/5to2/4 2/4to2/3 2/3to2/2 2/2to3/2 3/2to4/2 4/2to4/1 4/1to5/1 5/1to5/2 5/2to4/2 4/2to4/1 4/1to4/0 4/0to3/0 3/0to3/1 3/1to4/1 4/1to4/0 4/0to5/0 5/0to5/1 5/1to4/1 4/1to3/1 3/1to2/1 2/1to2/2 2/2to2/3 2/3to2/4 2/4to2/5 2/5to1/5 1/5to1/4 1/4to2/4 2/4to3/4 3/4to3/3 3/3to2/3 2/3to1/3 1/3to1/2 1/2to0/2 0/2to0/3 0/3to1/3 1/3to1/2 1/2to1/1 1/1to0/1 0/1to0/2 0/2to0/3 0/3to0/4 0/4to1/4 1/4to1/5 1/5to1/6 1/6to2/6 2/6to3/6 3/6to4/6 4/6to4/5 4/5to3/5 3/5to2/5 2/5to2/4 2/4to1/4 1/4to1/5 1/5to1/6 1/6to2/6 2/6to3/6 3/6to4/6 4/6to5/6 5/6to6/6 6/6to6/5 6/5to5/5 5/5to4/5 4/5to3/5 3/5to2/5 2/5to1/5 1/5to1/4 1/4to1/3 1/3to1/2 1/2to2/2 2/2to2/1 2/1to2/0 2/0to3/0 3/0to3/1 3/1to3/2 3/2to3/3 3/3to3/4 3/4to3/5 3/5to3/6 3/6to4/6 4/6to5/6 5/6to5/5 5/5to5/4 5/4to5/3 5/3to5/2 5/2to5/1 5/1to6/1 6/1to6/0 6/0to5/0 5/0to4/0 4/0to3/0 3/0to2/0 2/0to2/1 2/1to2/2 2/2to2/3 2/3to2/4 2/4to1/4 1/4to1/3 1/3to1/2 1/2to1/1 1/1to1/0 1/0to0/0 0/0to0/1 0/1to1/1 1/1to1/0 1/0to2/0 2/0to3/0 3/0to4/0 4/0to5/0 5/0to6/0 6/0to6/1 6/1to5/1 5/1to5/2 5/2to4/2 4/2to4/1 4/1to5/1 5/1to5/2 5/2to6/2 6/2to6/1 6/1to5/1 5/1to4/1 4/1to3/1 3/1to2/1 2/1to1/1 1/1to1/2 1/2to1/3 1/3to1/4 1/4to0/4"/>
    </vehicle>
    <vehicle id="2" depart="0.00">
        <route edges="2/4to2/3 2/3to2/2 2/2to2/1 2/1to3/1 3/1to4/1 4/1to5/1 5/1to6/1 6/1to6/2 6/2to5/2 5/2to5/1 5/1to5/0 5/0to4/0 4/0to3/0 3/0to2/0 2/0to2/1 2/1to2/2 2/2to2/3 2/3to2/4 2/4to2/5 2/5to2/6 2/6to1/6 1/6to1/5 1/5to1/4 1/4to1/3 1/3to1/2 1/2to1/1 1/1to2/1 2/1to2/2 2/2to2/3 2/3to2/4 2/4to3/4 3/4to4/4 4/4to4/3 4/3to3/3 3/3to2/3 2/3to2/4 2/4to3/4 3/4to3/3 3/3to2/3 2/3to1/3 1/3to0/3 0/3to0/2 0/2to1/2 1/2to2/2 2/2to3/2 3/2to4/2 4/2to5/2 5/2to5/1 5/1to4/1 4/1to3/1 3/1to3/2 3/2to3/3 3/3to3/4 3/4to3/5 3/5to3/6 3/6to4/6 4/6to4/5 4/5to4/4 4/4to5/4 5/4to5/3 5/3to5/2 5/2to5/1 5/1to5/0 5/0to4/0 4/0to4/1 4/1to4/2 4/2to4/3 4/3to4/4 4/4to4/5 4/5to4/6 4/6to5/6 5/6to5/5 5/5to5/4 5/4to5/3 5/3to5/2 5/2to5/1 5/1to6/1 6/1to6/0 6/0to5/0 5/0to4/0 4/0to3/0 3/0to2/0 2/0to1/0 1/0to1/1 1/1to1/2 1/2to1/3 1/3to1/4 1/4to0/4 0/4to0/3 0/3to0/2 0/2to1/2 1/2to1/1 1/1to0/1 0/1to0/2 0/2to0/3 0/3to0/4 0/4to0/5 0/5to0/6 0/6to1/6 1/6to1/5 1/5to1/4 1/4to1/3 1/3to1/2 1/2to0/2 0/2to0/3 0/3to0/4 0/4to0/5 0/5to1/5 1/5to1/6 1/6to2/6 2/6to3/6 3/6to3/5 3/5to2/5 2/5to1/5 1/5to1/4 1/4to1/3 1/3to1/2 1/2to1/1 1/1to0/1 0/1to0/2 0/2to1/2 1/2to1/3 1/3to1/4 1/4to2/4 2/4to2/5 2/5to1/5 1/5to1/4 1/4to1/3 1/3to1/2 1/2to1/1 1/1to2/1 2/1to2/2 2/2to3/2 3/2to3/3 3/3to2/3 2/3to2/4 2/4to2/5 2/5to2/6 2/6to1/6 1/6to1/5 1/5to1/4 1/4to1/3 1/3to1/2 1/2to0/2 0/2to0/1 0/1to1/1 1/1to1/2 1/2to2/2 2/2to3/2 3/2to4/2 4/2to5/2 5/2to6/2 6/2to6/1 6/1to5/1 5/1to5/0 5/0to4/0 4/0to4/1 4/1to4/2 4/2to5/2 5/2to5/3 5/3to4/3 4/3to4/2 4/2to4/1 4/1to4/0 4/0to5/0 5/0to5/1 5/1to4/1 4/1to3/1 3/1to2/1 2/1to2/2 2/2to2/3 2/3to2/4 2/4to2/5 2/5to3/5 3/5to3/4 3/4to4/4 4/4to5/4 5/4to6/4 6/4to6/5 6/5to5/5 5/5to4/5 4/5to3/5 3/5to2/5 2/5to1/5 1/5to1/4 1/4to1/3 1/3to1/2 1/2to1/1 1/1to1/0 1/0to2/0 2/0to2/1 2/1to2/2 2/2to2/3 2/3to3/3 3/3to4/3 4/3to4/4 4/4to3/4 3/4to2/4 2/4to1/4 1/4to1/3 1/3to1/2 1/2to2/2 2/2to3/2 3/2to4/2 4/2to5/2 5/2to5/1 5/1to4/1 4/1to3/1 3/1to2/1 2/1to1/1 1/1to0/1 0/1to0/2 0/2to0/3 0/3to0/4 0/4to0/5 0/5to0/6 0/6to1/6 1/6to1/5 1/5to1/4 1/4to1/3 1/3to1/2 1/2to1/1 1/1to1/0 1/0to2/0 2/0to3/0 3/0to4/0 4/0to4/1 4/1to4/2 4/2to4/3 4/3to5/3 5/3to5/4 5/4to4/4 4/4to3/4 3/4to3/5 3/5to3/6 3/6to4/6 4/6to4/5 4/5to3/5 3/5to2/5 2/5to1/5 1/5to0/5 0/5to0/4 0/4to0/3 0/3to0/2 0/2to0/1 0/1to1/1 1/1to2/1 2/1to2/0 2/0to3/0 3/0to3/1 3/1to3/2 3/2to3/3 3/3to3/4 3/4to3/5 3/5to4/5 4/5to5/5 5/5to5/4 5/4to5/3 5/3to5/2 5/2to5/1 5/1to4/1 4/1to4/2 4/2to4/3 4/3to4/4 4/4to5/4 5/4to5/3 5/3to4/3 4/3to3/3 3/3to2/3 2/3to2/2 2/2to1/2 1/2to1/1 1/1to2/1 2/1to3/1 3/1to4/1 4/1to4/2 4/2to3/2 3/2to2/2 2/2to2/1 2/1to2/0 2/0to3/0"/>
    </vehicle>
    <vehicle id="3" depart="0.00">
        <route edges="5/3to4/3 4/3to3/3 3/3to3/4 3/4to3/5 3/5to4/5 4/5to4/4 4/4to3/4 3/4to3/3 3/3to2/3 2/3to1/3 1/3to1/4 1/4to1/5 1/5to2/5 2/5to3/5 3/5to3/4 3/4to2/4 2/4to2/5 2/5to1/5 1/5to1/4 1/4to0/4 0/4to0/3 0/3to0/2 0/2to1/2 1/2to1/3 1/3to0/3 0/3to0/4 0/4to1/4 1/4to2/4 2/4to2/3 2/3to1/3 1/3to1/2 1/2to0/2 0/2to0/1 0/1to1/1 1/1to1/0 1/0to2/0 2/0to3/0 3/0to4/0 4/0to5/0 5/0to5/1 5/1to4/1 4/1to3/1 3/1to2/1 2/1to2/2 2/2to2/3 2/3to2/4 2/4to2/5 2/5to1/5 1/5to1/4 1/4to1/3 1/3to1/2 1/2to1/1 1/1to1/0 1/0to2/0 2/0to3/0 3/0to4/0 4/0to4/1 4/1to4/2 4/2to4/3 4/3to5/3 5/3to6/3 6/3to6/2 6/2to5/2 5/2to4/2 4/2to4/3 4/3to4/4 4/4to4/5 4/5to4/6 4/6to3/6 3/6to2/6 2/6to2/5 2/5to2/4 2/4to2/3 2/3to2/2 2/2to1/2 1/2to1/3 1/3to1/4 1/4to1/5 1/5to1/6 1/6to2/6 2/6to3/6 3/6to4/6 4/6to5/6 5/6to5/5 5/5to4/5 4/5to3/5 3/5to2/5 2/5to1/5 1/5to1/4 1/4to0/4 0/4to0/3 0/3to0/2 0/2to1/2 1/2to1/3 1/3to2/3 2/3to2/2 2/2to3/2 3/2to4/2 4/2to5/2 5/2to5/1 5/1to4/1 4/1to3/1 3/1to2/1 2/1to2/2 2/2to1/2 1/2to1/1 1/1to0/1 0/1to0/2 0/2to1/2 1/2to1/3 1/3to1/4 1/4to1/5 1/5to2/5 2/5to3/5 3/5to4/5 4/5to4/6 4/6to3/6 3/6to2/6 2/6to2/5 2/5to2/4 2/4to2/3 2/3to2/2 2/2to3/2 3/2to3/3 3/3to2/3 2/3to2/4 2/4to1/4 1/4to1/3 1/3to0/3 0/3to0/2 0/2to0/1 0/1to0/0 0/0to1/0 1/0to1/1 1/1to1/2 1/2to1/3 1/3to1/4 1/4to2/4 2/4to3/4 3/4to4/4 4/4to5/4 5/4to6/4 6/4to6/3 6/3to5/3 5/3to4/3 4/3to3/3 3/3to2/3 2/3to1/3 1/3to1/4 1/4to1/5 1/5to2/5 2/5to2/4 2/4to2/3 2/3to2/2 2/2to2/1 2/1to2/0 2/0to3/0 3/0to4/0 4/0to4/1 4/1to3/1 3/1to2/1 2/1to1/1 1/1to0/1 0/1to0/0 0/0to1/0 1/0to2/0 2/0to3/0 3/0to4/0 4/0to5/0 5/0to5/1 5/1to5/2 5/2to5/3 5/3to5/4 5/4to5/5 5/5to6/5 6/5to6/4 6/4to5/4 5/4to4/4 4/4to3/4 3/4to2/4 2/4to2/3 2/3to1/3 1/3to1/4 1/4to1/5 1/5to1/6 1/6to2/6 2/6to3/6 3/6to4/6 4/6to5/6 5/6to6/6 6/6to6/5 6/5to6/4 6/4to5/4 5/4to5/5 5/5to5/6 5/6to4/6 4/6to3/6 3/6to2/6 2/6to1/6 1/6to1/5 1/5to0/5 0/5to0/4 0/4to1/4 1/4to1/3 1/3to1/2 1/2to2/2 2/2to3/2 3/2to4/2 4/2to4/1 4/1to3/1 3/1to2/1 2/1to2/0 2/0to1/0 1/0to1/1 1/1to1/2 1/2to0/2 0/2to0/1 0/1to1/1 1/1to1/2 1/2to1/3 1/3to1/4 1/4to1/5 1/5to2/5 2/5to3/5 3/5to4/5 4/5to5/5 5/5to6/5 6/5to6/6 6/6to5/6 5/6to5/5 5/5to5/4 5/4to5/3 5/3to5/2 5/2to5/1 5/1to5/0 5/0to4/0 4/0to4/1 4/1to4/2 4/2to4/3 4/3to5/3 5/3to6/3 6/3to6/2 6/2to5/2 5/2to4/2 4/2to3/2 3/2to3/3 3/3to3/4 3/4to2/4 2/4to2/3 2/3to2/2 2/2to1/2 1/2to1/3 1/3to0/3 0/3to0/4 0/4to1/4 1/4to2/4 2/4to3/4 3/4to4/4 4/4to5/4 5/4to5/3 5/3to4/3 4/3to4/2 4/2to5/2 5/2to5/3 5/3to6/3 6/3to6/4 6/4to5/4 5/4to4/4 4/4to3/4 3/4to2/4 2/4to1/4 1/4to1/5 1/5to2/5 2/5to3/5 3/5to4/5 4/5to5/5 5/5to5/6 5/6to4/6"/>
    </vehicle>
    <vehicle id="4" depart="0.00">
        <route edges="6/6to5/6 5/6to5/5 5/5to4/5 4/5to4/4 4/4to4/3 4/3to4/2 4/2to4/1 4/1to4/0 4/0to5/0 5/0to6/0 6/0to6/1 6/1to5/1 5/1to4/1 4/1to3/1 3/1to2/1 2/1to1/1 1/1to0/1 0/1to0/2 0/2to0/3 0/3to0/4 0/4to0/5 0/5to0/6 0/6to1/6 1/6to1/5 1/5to2/5 2/5to3/5 3/5to4/5 4/5to5/5 5/5to6/5 6/5to6/6 6/6to5/6 5/6to4/6 4/6to3/6 3/6to3/5 3/5to3/4 3/4to3/3 3/3to3/2 3/2to3/1 3/1to2/1 2/1to2/2 2/2to3/2 3/2to3/1 3/1to4/1 4/1to4/0 4/0to3/0 3/0to3/1 3/1to3/2 3/2to4/2 4/2to4/3 4/3to3/3 3/3to3/2 3/2to4/2 4/2to4/3 4/3to5/3 5/3to6/3 6/3to6/2 6/2to5/2 5/2to4/2 4/2to3/2 3/2to2/2 2/2to2/1 2/1to3/1 3/1to3/2 3/2to2/2 2/2to1/2 1/2to1/3 1/3to0/3 0/3to0/4 0/4to0/5 0/5to1/5 1/5to1/6 1/6to2/6 2/6to3/6 3/6to4/6 4/6to5/6 5/6to5/5 5/5to4/5 4/5to4/6 4/6to3/6 3/6to3/5 3/5to3/4 3/4to4/4 4/4to4/3 4/3to3/3 3/3to2/3 2/3to1/3 1/3to0/3 0/3to0/2 0/2to0/1 0/1to0/0 0/0to1/0 1/0to1/1 1/1to0/1"/>
    </vehicle>
    <vehicle id="5" depart="0.00">
        <route edges="6/4to6/3 6/3to5/3 5/3to5/2 5/2to5/1 5/1to6/1 6/1to6/2 6/2to5/2 5/2to4/2 4/2to3/2 3/2to2/2 2/2to1/2 1/2to0/2 0/2to0/1 0/1to1/1 1/1to1/2 1/2to1/3 1/3to2/3 2/3to3/3 3/3to4/3 4/3to5/3 5/3to6/3 6/3to6/4 6/4to5/4 5/4to4/4 4/4to4/3 4/3to4/2 4/2to4/1 4/1to4/0 4/0to3/0 3/0to2/0 2/0to1/0 1/0to1/1 1/1to1/2 1/2to1/3 1/3to1/4 1/4to1/5 1/5to1/6 1/6to2/6 2/6to2/5 2/5to2/4 2/4to2/3 2/3to2/2 2/2to2/1 2/1to3/1 3/1to4/1 4/1to5/1 5/1to6/1 6/1to6/2 6/2to5/2 5/2to4/2 4/2to3/2 3/2to2/2 2/2to1/2 1/2to1/3 1/3to1/4 1/4to1/5 1/5to1/6 1/6to0/6 0/6to0/5 0/5to1/5 1/5to2/5 2/5to2/4 2/4to1/4 1/4to1/5 1/5to2/5 2/5to3/5 3/5to4/5 4/5to4/6 4/6to3/6 3/6to2/6 2/6to2/5 2/5to2/4 2/4to2/3 2/3to2/2 2/2to1/2 1/2to1/3 1/3to1/4 1/4to1/5 1/5to2/5 2/5to3/5 3/5to4/5 4/5to4/4 4/4to4/3 4/3to4/2 4/2to5/2 5/2to5/1 5/1to4/1 4/1to4/2 4/2to5/2 5/2to5/3 5/3to4/3 4/3to3/3 3/3to2/3 2/3to2/2 2/2to1/2 1/2to1/3 1/3to1/4 1/4to2/4 2/4to3/4 3/4to4/4 4/4to4/5 4/5to5/5 5/5to5/4 5/4to5/3 5/3to5/2 5/2to4/2 4/2to3/2 3/2to2/2 2/2to2/3 2/3to1/3 1/3to1/2 1/2to0/2 0/2to0/1 0/1to1/1 1/1to1/0 1/0to2/0 2/0to3/0 3/0to4/0 4/0to5/0 5/0to6/0 6/0to6/1 6/1to6/2 6/2to5/2 5/2to4/2 4/2to3/2 3/2to2/2 2/2to1/2 1/2to0/2 0/2to0/3 0/3to1/3 1/3to1/4 1/4to1/5 1/5to2/5 2/5to3/5 3/5to4/5 4/5to5/5 5/5to5/4 5/4to5/3 5/3to5/2 5/2to4/2 4/2to4/3 4/3to3/3 3/3to3/2 3/2to4/2 4/2to5/2 5/2to5/3 5/3to4/3 4/3to3/3 3/3to3/2 3/2to4/2 4/2to4/3 4/3to4/4 4/4to5/4 5/4to6/4 6/4to6/5 6/5to6/6 6/6to5/6 5/6to4/6 4/6to3/6 3/6to2/6 2/6to1/6 1/6to1/5 1/5to1/4 1/4to1/3 1/3to1/2 1/2to1/1 1/1to1/0 1/0to2/0 2/0to2/1 2/1to2/2 2/2to2/3 2/3to2/4 2/4to2/5 2/5to2/6 2/6to3/6 3/6to4/6 4/6to5/6 5/6to6/6 6/6to6/5 6/5to5/5 5/5to4/5 4/5to3/5 3/5to2/5 2/5to1/5 1/5to1/4 1/4to0/4 0/4to0/5 0/5to1/5 1/5to1/4 1/4to1/3 1/3to1/2 1/2to2/2 2/2to3/2 3/2to4/2 4/2to5/2 5/2to6/2 6/2to6/1 6/1to5/1 5/1to4/1 4/1to3/1 3/1to3/0 3/0to4/0 4/0to4/1 4/1to4/2 4/2to4/3 4/3to4/4 4/4to5/4 5/4to6/4 6/4to6/5 6/5to5/5 5/5to5/4 5/4to5/3 5/3to5/2 5/2to4/2 4/2to3/2 3/2to2/2 2/2to2/3 2/3to2/4 2/4to2/5 2/5to1/5 1/5to1/4 1/4to2/4 2/4to2/5 2/5to3/5 3/5to4/5 4/5to5/5 5/5to6/5 6/5to6/6 6/6to5/6 5/6to4/6 4/6to3/6 3/6to2/6 2/6to1/6 1/6to1/5 1/5to1/4 1/4to1/3 1/3to1/2 1/2to2/2 2/2to2/3 2/3to1/3 1/3to1/2 1/2to0/2 0/2to0/3 0/3to1/3 1/3to1/2 1/2to1/1 1/1to2/1 2/1to2/0 2/0to1/0 1/0to1/1 1/1to0/1 0/1to0/2 0/2to0/3 0/3to0/4 0/4to1/4 1/4to1/3 1/3to1/2 1/2to1/1 1/1to2/1 2/1to3/1 3/1to4/1 4/1to4/0 4/0to3/0 3/0to3/1 3/1to3/2 3/2to3/3 3/3to3/4 3/4to4/4 4/4to4/5 4/5to3/5 3/5to3/4 3/4to4/4 4/4to4/3 4/3to3/3 3/3to2/3 2/3to2/4 2/4to2/5 2/5to2/6 2/6to3/6 3/6to3/5 3/5to3/4 3/4to3/3 3/3to4/3 4/3to5/3 5/3to6/3 6/3to6/2 6/2to5/2 5/2to4/2 4/2to3/2 3/2to2/2 2/2to2/3 2/3to2/4 2/4to2/5 2/5to2/6 2/6to3/6 3/6to3/5 3/5to3/4 3/4to3/3 3/3to3/2 3/2to3/1 3/1to2/1 2/1to2/2 2/2to2/3 2/3to2/4 2/4to1/4 1/4to1/3"/>
    </vehicle>
    <vehicle id="6" depart="0.00">
        <route edges="0/4to0/3 0/3to1/3 1/3to1/4 1/4to1/5 1/5to0/5 0/5to0/4 0/4to1/4 1/4to1/5 1/5to0/5 0/5to0/6 0/6to1/6 1/6to1/5 1/5to1/4 1/4to1/3 1/3to1/2 1/2to2/2 2/2to3/2 3/2to4/2 4/2to4/1 4/1to3/1 3/1to2/1 2/1to1/1 1/1to1/2 1/2to0/2 0/2to0/3 0/3to1/3 1/3to1/2 1/2to1/1 1/1to1/0 1/0to2/0 2/0to3/0 3/0to4/0 4/0to4/1 4/1to5/1 5/1to6/1 6/1to6/2 6/2to5/2 5/2to4/2 4/2to3/2 3/2to3/3 3/3to3/4 3/4to3/5 3/5to2/5 2/5to2/4 2/4to1/4 1/4to1/3 1/3to1/2 1/2to0/2 0/2to0/3 0/3to0/4 0/4to1/4 1/4to2/4 2/4to3/4 3/4to4/4 4/4to5/4 5/4to5/5 5/5to4/5 4/5to3/5 3/5to2/5 2/5to2/4 2/4to2/3 2/3to2/2 2/2to2/1 2/1to2/0 2/0to1/0 1/0to1/1 1/1to2/1 2/1to2/0 2/0to3/0 3/0to4/0 4/0to5/0 5/0to6/0 6/0to6/1 6/1to5/1 5/1to4/1 4/1to3/1 3/1to2/1 2/1to2/2 2/2to1/2 1/2to1/1 1/1to1/0 1/0to2/0 2/0to3/0 3/0to3/1 3/1to2/1 2/1to1/1 1/1to1/2 1/2to1/3 1/3to1/4 1/4to2/4 2/4to2/3 2/3to2/2 2/2to2/1 2/1to3/1 3/1to3/0 3/0to4/0 4/0to4/1 4/1to4/2 4/2to5/2 5/2to6/2 6/2to6/3 6/3to5/3 5/3to4/3 4/3to3/3 3/3to2/3 2/3to1/3 1/3to1/4 1/4to1/5 1/5to0/5 0/5to0/4 0/4to0/3 0/3to0/2 0/2to0/1 0/1to1/1 1/1to2/1 2/1to2/0 2/0to3/0 3/0to3/1 3/1to3/2 3/2to3/3 3/3to3/4 3/4to3/5 3/5to4/5 4/5to4/6 4/6to3/6 3/6to2/6 2/6to1/6 1/6to1/5 1/5to1/4 1/4to1/3 1/3to1/2 1/2to1/1 1/1to0/1 0/1to0/2 0/2to1/2 1/2to1/3 1/3to0/3 0/3to0/2 0/2to0/1 0/1to1/1 1/1to1/2 1/2to1/3 1/3to2/3 2/3to3/3 3/3to4/3 4/3to4/2 4/2to3/2 3/2to2/2 2/2to2/3 2/3to1/3 1/3to1/4 1/4to1/5 1/5to1/6 1/6to2/6 2/6to2/5 2/5to2/4 2/4to3/4 3/4to4/4 4/4to5/4 5/4to6/4 6/4to6/3 6/3to5/3 5/3to4/3 4/3to3/3 3/3to2/3 2/3to1/3 1/3to1/2 1/2to2/2 2/2to3/2 3/2to4/2 4/2to5/2 5/2to6/2 6/2to6/3 6/3to5/3 5/3to5/2 5/2to5/1 5/1to5/0 5/0to4/0 4/0to4/1 4/1to4/2 4/2to4/3 4/3to4/4 4/4to4/5 4/5to4/6 4/6to3/6 3/6to3/5 3/5to2/5 2/5to1/5 1/5to0/5 0/5to0/4 0/4to0/3 0/3to0/2 0/2to0/1 0/1to1/1 1/1to1/0 1/0to2/0 2/0to3/0 3/0to3/1 3/1to3/2 3/2to3/3 3/3to3/4 3/4to4/4 4/4to4/3 4/3to3/3 3/3to3/2 3/2to3/1 3/1to3/0 3/0to2/0 2/0to2/1 2/1to1/1 1/1to1/0 1/0to2/0 2/0to3/0 3/0to3/1 3/1to2/1 2/1to1/1 1/1to1/2 1/2to1/3 1/3to1/4 1/4to2/4 2/4to2/3 2/3to3/3 3/3to4/3 4/3to5/3 5/3to5/4 5/4to4/4 4/4to4/3 4/3to3/3 3/3to2/3 2/3to1/3 1/3to1/2 1/2to2/2 2/2to2/3 2/3to1/3 1/3to0/3 0/3to0/2 0/2to1/2 1/2to1/3 1/3to1/4 1/4to2/4 2/4to3/4 3/4to4/4 4/4to4/3 4/3to3/3 3/3to2/3 2/3to1/3 1/3to1/4 1/4to2/4 2/4to2/3 2/3to3/3 3/3to3/4 3/4to3/5 3/5to3/6 3/6to4/6 4/6to5/6 5/6to5/5 5/5to4/5 4/5to3/5 3/5to3/4 3/4to3/3 3/3to2/3 2/3to2/4 2/4to1/4 1/4to1/3 1/3to1/2 1/2to2/2 2/2to2/1 2/1to3/1 3/1to3/2 3/2to3/3 3/3to4/3 4/3to4/4 4/4to3/4 3/4to3/3 3/3to3/2 3/2to4/2 4/2to5/2 5/2to5/3 5/3to4/3 4/3to3/3 3/3to2/3 2/3to2/4 2/4to2/5 2/5to2/6 2/6to3/6"/>
    </vehicle>
    <vehicle id="7" depart="0.00">
        <route edges="2/2to1/2 1/2to1/1 1/1to1/0 1/0to0/0 0/0to0/1 0/1to0/2 0/2to0/3 0/3to0/4 0/4to0/5 0/5to0/6 0/6to1/6 1/6to1/5 1/5to1/4 1/4to1/3 1/3to1/2 1/2to2/2 2/2to3/2 3/2to4/2 4/2to4/1 4/1to3/1 3/1to2/1 2/1to2/2 2/2to2/3 2/3to2/4 2/4to2/5 2/5to1/5 1/5to1/4 1/4to1/3 1/3to1/2 1/2to1/1 1/1to2/1 2/1to3/1 3/1to4/1 4/1to5/1 5/1to6/1 6/1to6/2 6/2to5/2 5/2to5/3 5/3to5/4 5/4to5/5 5/5to5/6 5/6to4/6 4/6to4/5 4/5to4/4 4/4to4/3 4/3to4/2 4/2to4/1 4/1to3/1 3/1to3/2 3/2to2/2 2/2to2/1 2/1to3/1 3/1to4/1 4/1to4/2 4/2to3/2 3/2to3/3 3/3to2/3 2/3to2/4 2/4to2/5 2/5to2/6 2/6to1/6 1/6to1/5 1/5to1/4 1/4to1/3 1/3to1/2 1/2to2/2 2/2to3/2 3/2to3/3 3/3to2/3 2/3to1/3 1/3to1/4 1/4to1/5 1/5to1/6 1/6to0/6 0/6to0/5 0/5to0/4 0/4to0/3 0/3to0/2 0/2to1/2 1/2to2/2 2/2to3/2 3/2to4/2 4/2to5/2 5/2to6/2 6/2to6/1 6/1to5/1 5/1to4/1 4/1to3/1 3/1to2/1 2/1to1/1 1/1to0/1 0/1to0/2 0/2to1/2 1/2to2/2 2/2to3/2 3/2to4/2 4/2to4/3 4/3to3/3 3/3to3/4 3/4to4/4 4/4to5/4 5/4to6/4 6/4to6/5 6/5to5/5 5/5to5/4 5/4to5/3 5/3to5/2 5/2to6/2 6/2to6/3 6/3to5/3 5/3to4/3 4/3to3/3 3/3to2/3 2/3to2/2 2/2to2/1 2/1to3/1 3/1to3/2 3/2to3/3 3/3to4/3 4/3to5/3 5/3to5/4 5/4to4/4 4/4to4/3 4/3to4/2 4/2to5/2 5/2to6/2 6/2to6/3 6/3to5/3 5/3to4/3 4/3to3/3 3/3to3/4 3/4to2/4 2/4to2/3 2/3to2/2 2/2to3/2 3/2to4/2 4/2to5/2 5/2to6/2 6/2to6/3 6/3to6/4 6/4to6/5 6/5to6/6 6/6to5/6 5/6to4/6 4/6to3/6 3/6to2/6 2/6to2/5 2/5to2/4 2/4to2/3 2/3to3/3 3/3to3/4 3/4to3/5 3/5to4/5 4/5to5/5 5/5to6/5 6/5to6/4 6/4to5/4 5/4to4/4 4/4to3/4 3/4to3/3 3/3to3/2 3/2to2/2 2/2to2/3 2/3to2/4 2/4to3/4 3/4to3/5 3/5to2/5 2/5to2/4 2/4to2/3 2/3to3/3 3/3to4/3 4/3to5/3 5/3to6/3 6/3to6/2 6/2to5/2 5/2to4/2 4/2to3/2 3/2to2/2 2/2to1/2 1/2to1/1 1/1to2/1 2/1to3/1 3/1to4/1 4/1to5/1 5/1to6/1 6/1to6/2 6/2to5/2 5/2to4/2 4/2to3/2 3/2to3/3 3/3to3/4 3/4to3/5 3/5to3/6 3/6to4/6 4/6to4/5 4/5to4/4 4/4to5/4 5/4to5/5 5/5to4/5 4/5to4/6 4/6to3/6 3/6to2/6 2/6to1/6 1/6to1/5 1/5to1/4 1/4to1/3 1/3to2/3 2/3to3/3 3/3to4/3 4/3to4/2 4/2to3/2 3/2to2/2 2/2to1/2 1/2to1/1 1/1to1/0 1/0to2/0 2/0to2/1 2/1to1/1 1/1to0/1 0/1to0/0 0/0to1/0 1/0to1/1 1/1to1/2 1/2to1/3 1/3to2/3 2/3to3/3 3/3to4/3 4/3to4/4 4/4to3/4 3/4to3/3 3/3to2/3 2/3to2/4 2/4to2/5 2/5to2/6 2/6to1/6 1/6to1/5 1/5to1/4 1/4to2/4 2/4to3/4 3/4to4/4 4/4to5/4 5/4to6/4 6/4to6/3 6/3to5/3 5/3to4/3 4/3to3/3 3/3to3/4 3/4to4/4 4/4to4/5 4/5to3/5 3/5to2/5 2/5to1/5 1/5to0/5 0/5to0/6 0/6to1/6 1/6to1/5 1/5to1/4 1/4to1/3 1/3to2/3 2/3to2/4 2/4to2/5 2/5to3/5 3/5to4/5 4/5to4/4 4/4to4/3 4/3to4/2 4/2to5/2 5/2to5/1 5/1to4/1 4/1to3/1 3/1to2/1 2/1to2/2 2/2to2/3 2/3to3/3"/>
    </vehicle>
    <vehicle id="8" depart="0.00">
        <route edges="1/6to0/6 0/6to0/5 0/5to0/4 0/4to0/3 0/3to0/2 0/2to1/2 1/2to2/2 2/2to3/2 3/2to4/2 4/2to5/2 5/2to6/2 6/2to6/1 6/1to5/1 5/1to4/1 4/1to4/2 4/2to4/3 4/3to4/4 4/4to4/5 4/5to4/6 4/6to3/6 3/6to2/6 2/6to1/6 1/6to1/5 1/5to0/5 0/5to0/4 0/4to0/3 0/3to0/2 0/2to0/1 0/1to0/0 0/0to1/0 1/0to1/1 1/1to1/2 1/2to2/2 2/2to3/2 3/2to4/2 4/2to5/2 5/2to5/3 5/3to4/3 4/3to4/2 4/2to4/1 4/1to4/0 4/0to3/0 3/0to2/0 2/0to1/0 1/0to1/1 1/1to0/1 0/1to0/2 0/2to0/3 0/3to0/4 0/4to0/5 0/5to0/6 0/6to1/6 1/6to1/5 1/5to1/4 1/4to2/4 2/4to3/4 3/4to4/4 4/4to5/4 5/4to6/4 6/4to6/5 6/5to5/5 5/5to4/5 4/5to4/4 4/4to4/3 4/3to5/3 5/3to6/3 6/3to6/2 6/2to5/2 5/2to4/2 4/2to4/3 4/3to4/4 4/4to3/4 3/4to3/3 3/3to2/3 2/3to2/2 2/2to3/2 3/2to3/3 3/3to2/3 2/3to2/2 2/2to2/1 2/1to3/1 3/1to3/0 3/0to2/0 2/0to1/0 1/0to1/1 1/1to0/1 0/1to0/2 0/2to0/3 0/3to0/4 0/4to0/5 0/5to1/5 1/5to1/4 1/4to1/3 1/3to1/2 1/2to2/2 2/2to3/2 3/2to4/2 4/2to5/2 5/2to5/1 5/1to4/1 4/1to3/1 3/1to3/2 3/2to3/3 3/3to3/4 3/4to2/4 2/4to2/5 2/5to3/5 3/5to4/5 4/5to5/5 5/5to6/5 6/5to6/6 6/6to5/6 5/6to4/6 4/6to4/5 4/5to3/5 3/5to3/6 3/6to4/6 4/6to4/5 4/5to5/5 5/5to5/4 5/4to4/4 4/4to4/3 4/3to4/2 4/2to4/1 4/1to4/0 4/0to5/0 5/0to5/1 5/1to5/2 5/2to5/3 5/3to6/3 6/3to6/2 6/2to5/2 5/2to5/1 5/1to4/1 4/1to4/2 4/2to3/2 3/2to2/2 2/2to2/3 2/3to2/4 2/4to3/4 3/4to3/5 3/5to4/5 4/5to4/4 4/4to3/4 3/4to2/4 2/4to1/4 1/4to0/4 0/4to0/5 0/5to1/5 1/5to1/4 1/4to1/3 1/3to1/2 1/2to1/1 1/1to2/1 2/1to2/2 2/2to1/2 1/2to0/2 0/2to0/3 0/3to0/4 0/4to0/5 0/5to1/5 1/5to2/5 2/5to3/5 3/5to4/5 4/5to5/5 5/5to6/5 6/5to6/6 6/6to5/6 5/6to5/5 5/5to5/4 5/4to5/3 5/3to6/3 6/3to6/2 6/2to5/2 5/2to4/2 4/2to4/1 4/1to3/1 3/1to3/2 3/2to3/3 3/3to4/3 4/3to5/3 5/3to6/3 6/3to6/2 6/2to5/2 5/2to4/2 4/2to3/2 3/2to2/2 2/2to1/2 1/2to1/1 1/1to1/0 1/0to2/0 2/0to3/0 3/0to3/1 3/1to2/1 2/1to2/2 2/2to2/3 2/3to2/4 2/4to3/4 3/4to4/4 4/4to5/4 5/4to6/4 6/4to6/3 6/3to5/3 5/3to4/3 4/3to3/3 3/3to3/4 3/4to3/5 3/5to2/5 2/5to2/4 2/4to1/4 1/4to0/4 0/4to0/3 0/3to0/2 0/2to0/1 0/1to1/1 1/1to2/1 2/1to3/1 3/1to4/1 4/1to5/1 5/1to6/1 6/1to6/2 6/2to5/2 5/2to4/2 4/2to3/2 3/2to2/2 2/2to1/2 1/2to0/2 0/2to0/1 0/1to1/1 1/1to1/2 1/2to2/2 2/2to3/2 3/2to4/2 4/2to5/2 5/2to5/3 5/3to5/4 5/4to5/5 5/5to5/6 5/6to6/6 6/6to6/5 6/5to5/5 5/5to5/4 5/4to5/3 5/3to5/2 5/2to6/2 6/2to6/1 6/1to5/1 5/1to4/1 4/1to3/1 3/1to3/2 3/2to4/2 4/2to4/1 4/1to3/1 3/1to2/1 2/1to1/1 1/1to0/1 0/1to0/0 0/0to1/0 1/0to1/1 1/1to1/2 1/2to1/3 1/3to1/4 1/4to1/5 1/5to1/6 1/6to2/6 2/6to3/6 3/6to4/6 4/6to5/6 5/6to5/5 5/5to4/5 4/5to3/5 3/5to2/5 2/5to1/5 1/5to1/4 1/4to1/3 1/3to1/2 1/2to1/1 1/1to1/0 1/0to2/0 2/0to2/1 2/1to2/2 2/2to1/2 1/2to1/1"/>
    </vehicle>
    <vehicle id="9" depart="0.00">
        <route edges="5/2to5/1 5/1to4/1 4/1to3/1 3/1to2/1 2/1to1/1 1/1to1/0 1/0to0/0 0/0to0/1 0/1to0/2 0/2to0/3 0/3to1/3 1/3to1/2 1/2to1/1 1/1to2/1 2/1to3/1 3/1to3/0 3/0to2/0 2/0to2/1 2/1to2/2 2/2to2/3 2/3to2/4 2/4to2/5 2/5to3/5 3/5to3/6 3/6to2/6 2/6to2/5 2/5to3/5 3/5to3/4 3/4to3/3 3/3to3/2 3/2to3/1 3/1to4/1 4/1to5/1 5/1to6/1 6/1to6/0 6/0to5/0 5/0to4/0 4/0to3/0 3/0to2/0 2/0to1/0 1/0to1/1 1/1to1/2 1/2to1/3 1/3to1/4 1/4to1/5 1/5to2/5 2/5to2/4 2/4to1/4 1/4to1/3 1/3to1/2 1/2to1/1 1/1to0/1 0/1to0/2 0/2to0/3 0/3to1/3 1/3to1/2 1/2to0/2 0/2to0/1 0/1to1/1 1/1to2/1 2/1to2/2 2/2to1/2 1/2to1/3 1/3to1/4 1/4to1/5 1/5to1/6 1/6to2/6 2/6to2/5 2/5to2/4 2/4to1/4 1/4to1/5 1/5to2/5 2/5to2/6 2/6to1/6 1/6to0/6 0/6to0/5 0/5to0/4 0/4to0/3 0/3to0/2 0/2to0/1 0/1to1/1 1/1to1/0 1/0to2/0 2/0to3/0 3/0to4/0 4/0to4/1 4/1to3/1 3/1to2/1 2/1to1/1 1/1to1/0 1/0to0/0 0/0to0/1 0/1to0/2 0/2to1/2 1/2to1/1 1/1to0/1 0/1to0/2 0/2to1/2 1/2to1/1 1/1to2/1 2/1to3/1 3/1to4/1 4/1to5/1 5/1to6/1 6/1to6/0 6/0to5/0 5/0to4/0 4/0to4/1 4/1to4/2 4/2to5/2 5/2to5/1 5/1to6/1 6/1to6/2 6/2to5/2 5/2to4/2 4/2to3/2 3/2to2/2 2/2to1/2 1/2to0/2 0/2to0/1 0/1to1/1 1/1to1/2 1/2to1/3 1/3to1/4 1/4to1/5 1/5to2/5 2/5to3/5 3/5to4/5 4/5to4/6 4/6to3/6 3/6to2/6 2/6to1/6 1/6to1/5 1/5to0/5 0/5to0/4 0/4to0/3 0/3to0/2 0/2to0/1 0/1to1/1 1/1to1/2 1/2to1/3 1/3to2/3 2/3to3/3 3/3to3/4 3/4to2/4 2/4to2/5 2/5to1/5 1/5to1/4 1/4to1/3 1/3to1/2 1/2to1/1 1/1to0/1 0/1to0/2 0/2to0/3 0/3to0/4 0/4to1/4 1/4to2/4 2/4to3/4 3/4to4/4 4/4to5/4 5/4to6/4 6/4to6/5 6/5to5/5 5/5to4/5 4/5to3/5 3/5to2/5 2/5to2/4 2/4to2/3 2/3to2/2 2/2to1/2 1/2to1/1 1/1to2/1 2/1to2/2 2/2to1/2 1/2to0/2 0/2to0/3 0/3to0/4 0/4to0/5 0/5to0/6 0/6to1/6 1/6to1/5 1/5to2/5 2/5to2/6 2/6to3/6 3/6to3/5 3/5to3/4 3/4to3/3 3/3to3/2 3/2to4/2 4/2to5/2 5/2to5/1 5/1to4/1 4/1to3/1 3/1to2/1 2/1to2/2 2/2to1/2 1/2to1/1 1/1to0/1 0/1to0/2 0/2to0/3 0/3to1/3 1/3to1/4 1/4to0/4 0/4to0/5 0/5to1/5 1/5to1/6 1/6to2/6 2/6to3/6 3/6to3/5 3/5to3/4 3/4to3/3 3/3to3/2 3/2to3/1 3/1to4/1 4/1to5/1 5/1to6/1 6/1to6/2 6/2to5/2 5/2to4/2 4/2to3/2 3/2to2/2 2/2to1/2 1/2to1/3 1/3to1/4 1/4to1/5 1/5to2/5 2/5to2/4 2/4to3/4 3/4to3/5 3/5to2/5 2/5to2/4 2/4to2/3 2/3to3/3 3/3to3/4 3/4to3/5 3/5to4/5 4/5to5/5 5/5to6/5 6/5to6/6 6/6to5/6 5/6to5/5 5/5to6/5 6/5to6/4 6/4to5/4 5/4to4/4 4/4to3/4 3/4to3/5 3/5to3/6 3/6to2/6 2/6to2/5 2/5to2/4 2/4to2/3 2/3to1/3 1/3to1/2 1/2to2/2 2/2to2/3 2/3to3/3 3/3to4/3 4/3to5/3 5/3to6/3 6/3to6/2 6/2to5/2 5/2to5/3 5/3to6/3 6/3to6/4 6/4to5/4 5/4to4/4 4/4to3/4 3/4to3/3 3/3to3/2 3/2to3/1 3/1to3/0 3/0to4/0 4/0to4/1 4/1to4/2 4/2to4/3 4/3to4/4 4/4to4/5 4/5to4/6 4/6to5/6 5/6to5/5 5/5to4/5 4/5to3/5 3/5to2/5 2/5to1/5 1/5to1/4 1/4to1/3 1/3to1/2 1/2to1/1 1/1to0/1 0/1to0/2 0/2to0/3 0/3to0/4 0/4to0/5 0/5to1/5 1/5to1/6 1/6to2/6 2/6to2/5 2/5to3/5 3/5to3/6 3/6to2/6 2/6to1/6 1/6to1/5"/>
    </vehicle>
    <vehicle id="10" depart="0.00">
        <route edges="5/6to6/6 6/6to6/5 6/5to5/5 5/5to4/5 4/5to3/5 3/5to2/5 2/5to2/4 2/4to2/3 2/3to2/2 2/2to2/1 2/1to2/0 2/0to3/0 3/0to3/1 3/1to2/1 2/1to1/1 1/1to1/2 1/2to1/3 1/3to1/4 1/4to1/5 1/5to2/5 2/5to2/4 2/4to2/3 2/3to2/2 2/2to2/1 2/1to2/0 2/0to3/0 3/0to4/0 4/0to5/0 5/0to6/0 6/0to6/1 6/1to5/1 5/1to4/1 4/1to3/1 3/1to2/1 2/1to2/2 2/2to2/3 2/3to2/4 2/4to2/5 2/5to2/6 2/6to1/6 1/6to1/5 1/5to0/5 0/5to0/4 0/4to0/3 0/3to0/2 0/2to0/1 0/1to1/1 1/1to1/2 1/2to1/3 1/3to1/4 1/4to2/4 2/4to3/4 3/4to4/4 4/4to5/4 5/4to6/4 6/4to6/3 6/3to5/3 5/3to4/3 4/3to4/2 4/2to3/2 3/2to3/3 3/3to4/3 4/3to4/4 4/4to4/5 4/5to4/6 4/6to5/6 5/6to6/6 6/6to6/5 6/5to6/4 6/4to6/3 6/3to5/3 5/3to5/4 5/4to4/4 4/4to3/4 3/4to2/4 2/4to2/3 2/3to2/2 2/2to2/1 2/1to2/0 2/0to1/0 1/0to1/1 1/1to2/1 2/1to2/0 2/0to3/0 3/0to4/0 4/0to4/1 4/1to5/1 5/1to6/1 6/1to6/2 6/2to5/2 5/2to5/3 5/3to5/4 5/4to5/5 5/5to4/5 4/5to3/5 3/5to2/5 2/5to1/5 1/5to1/4 1/4to1/3 1/3to1/2 1/2to0/2 0/2to0/1 0/1to1/1 1/1to2/1 2/1to3/1 3/1to4/1 4/1to5/1 5/1to6/1 6/1to6/0 6/0to5/0 5/0to4/0 4/0to3/0 3/0to2/0 2/0to1/0 1/0to1/1 1/1to0/1 0/1to0/2 0/2to1/2 1/2to1/1 1/1to0/1 0/1to0/2 0/2to0/3 0/3to0/4 0/4to1/4 1/4to2/4 2/4to3/4 3/4to4/4 4/4to4/5 4/5to3/5 3/5to2/5 2/5to1/5 1/5to1/6 1/6to0/6 0/6to0/5 0/5to1/5 1/5to1/4 1/4to0/4 0/4to0/5 0/5to1/5 1/5to1/4 1/4to1/3 1/3to2/3 2/3to3/3 3/3to4/3 4/3to5/3 5/3to5/2 5/2to4/2 4/2to3/2 3/2to2/2 2/2to1/2 1/2to0/2 0/2to0/3 0/3to1/3 1/3to1/2 1/2to1/1 1/1to1/0 1/0to2/0 2/0to2/1 2/1to3/1 3/1to4/1 4/1to5/1 5/1to6/1 6/1to6/0 6/0to5/0 5/0to4/0 4/0to3/0 3/0to3/1 3/1to3/2 3/2to3/3 3/3to3/4 3/4to3/5 3/5to4/5 4/5to4/4 4/4to5/4 5/4to5/5 5/5to4/5 4/5to4/4 4/4to4/3 4/3to4/2 4/2to4/1 4/1to3/1 3/1to3/2 3/2to3/3 3/3to3/4 3/4to4/4 4/4to4/3 4/3to4/2 4/2to4/1 4/1to5/1 5/1to5/0 5/0to4/0 4/0to3/0 3/0to3/1 3/1to3/2 3/2to3/3 3/3to3/4 3/4to2/4 2/4to1/4 1/4to0/4 0/4to0/3 0/3to1/3 1/3to1/4 1/4to1/5 1/5to0/5 0/5to0/4 0/4to1/4 1/4to2/4 2/4to3/4 3/4to3/3 3/3to2/3 2/3to2/4 2/4to2/5 2/5to1/5 1/5to1/4 1/4to1/3 1/3to1/2 1/2to1/1 1/1to2/1 2/1to3/1 3/1to4/1 4/1to5/1 5/1to6/1 6/1to6/0 6/0to5/0 5/0to4/0 4/0to3/0 3/0to3/1 3/1to2/1 2/1to2/0 2/0to3/0 3/0to3/1 3/1to2/1 2/1to1/1 1/1to1/0 1/0to2/0 2/0to2/1 2/1to2/2 2/2to3/2 3/2to4/2 4/2to5/2 5/2to5/3 5/3to4/3 4/3to4/2 4/2to5/2 5/2to5/3 5/3to6/3 6/3to6/2 6/2to5/2 5/2to4/2 4/2to3/2 3/2to3/3 3/3to4/3 4/3to4/2 4/2to4/1 4/1to5/1 5/1to5/0 5/0to4/0 4/0to3/0 3/0to2/0 2/0to1/0 1/0to1/1 1/1to0/1 0/1to0/2 0/2to0/3 0/3to0/4 0/4to1/4 1/4to2/4 2/4to3/4 3/4to3/3 3/3to2/3 2/3to1/3 1/3to1/4 1/4to1/5 1/5to2/5 2/5to2/4 2/4to2/3 2/3to2/2 2/2to3/2 3/2to4/2 4/2to5/2 5/2to5/3 5/3to4/3 4/3to3/3 3/3to3/4 3/4to3/5 3/5to2/5 2/5to1/5 1/5to1/4 1/4to1/3 1/3to1/2 1/2to0/2 0/2to0/3 0/3to0/4 0/4to1/4 1/4to1/3"/>
    </vehicle>
    <vehicle id="11" depart="0.00">
        <route edges="2/5to2/6 2/6to3/6 3/6to3/5 3/5to2/5 2/5to1/5 1/5to1/4 1/4to0/4 0/4to0/5 0/5to1/5 1/5to2/5 2/5to2/4 2/4to2/3 2/3to3/3 3/3to4/3 4/3to4/4 4/4to3/4 3/4to3/3 3/3to3/2 3/2to3/1 3/1to2/1 2/1to2/2 2/2to3/2 3/2to4/2 4/2to5/2 5/2to6/2 6/2to6/3 6/3to5/3 5/3to4/3 4/3to3/3 3/3to2/3 2/3to1/3 1/3to1/2 1/2to1/1 1/1to0/1 0/1to0/2 0/2to0/3 0/3to0/4 0/4to0/5 0/5to1/5 1/5to1/6 1/6to2/6 2/6to3/6 3/6to4/6 4/6to5/6 5/6to5/5 5/5to4/5 4/5to3/5 3/5to3/4 3/4to3/3 3/3to3/2 3/2to3/1 3/1to4/1 4/1to5/1 5/1to5/2 5/2to4/2 4/2to4/3 4/3to5/3 5/3to5/4 5/4to4/4 4/4to4/5 4/5to5/5 5/5to5/6 5/6to4/6 4/6to3/6 3/6to2/6 2/6to2/5 2/5to2/4 2/4to3/4 3/4to3/3 3/3to3/2 3/2to3/1 3/1to3/0 3/0to2/0 2/0to2/1 2/1to2/2 2/2to2/3 2/3to1/3 1/3to1/2 1/2to1/1 1/1to2/1 2/1to3/1 3/1to4/1 4/1to5/1 5/1to6/1 6/1to6/0 6/0to5/0 5/0to4/0 4/0to3/0 3/0to2/0 2/0to2/1 2/1to2/2 2/2to2/3 2/3to2/4 2/4to2/5 2/5to1/5 1/5to1/4 1/4to1/3 1/3to2/3 2/3to3/3 3/3to3/2 3/2to4/2 4/2to5/2 5/2to6/2 6/2to6/1 6/1to5/1 5/1to5/2 5/2to5/3 5/3to5/4 5/4to5/5 5/5to6/5 6/5to6/4 6/4to5/4 5/4to4/4 4/4to3/4 3/4to2/4 2/4to2/5 2/5to2/6 2/6to3/6 3/6to3/5 3/5to3/4 3/4to3/3 3/3to3/2 3/2to3/1 3/1to4/1 4/1to4/0 4/0to3/0 3/0to3/1 3/1to3/2 3/2to3/3 3/3to4/3 4/3to4/2 4/2to3/2 3/2to2/2 2/2to1/2 1/2to1/3 1/3to1/4 1/4to1/5 1/5to1/6 1/6to0/6 0/6to0/5"/>
    </vehicle>
    <vehicle id="12" depart="0.00">