<?xml version="1.0" encoding="iso-8859-1"?>
<configuration xmlns:xsi="http://www.w3.org/2001/XMLSchema-instance" xsi:noNamespaceSchemaLocation="http://sumo.dlr.de/xsd/sumoConfiguration.xsd">

    <input>
        <net-file value="netfile.net.xml"/>
        <route-files value="routefile_process.rou.xml"/>
    </input>

    <time>
        <begin value="0"/>
        <end value="350.0"/>
    </time>
</configuration>
